CHEMBL192850
  -OEChem-07121202273D

 46 49  0     0  0  0  0  0  0999 V2000
   -0.4154    1.0399    0.5227 C   0  0  0  0  0  0  0  0  0  0  0  0
   -0.5606   -0.4832    0.5276 C   0  0  0  0  0  0  0  0  0  0  0  0
   -0.0116   -1.0436    1.8411 C   0  0  0  0  0  0  0  0  0  0  0  0
   -2.3129   -0.9241    0.3675 S   0  0  0  0  0  0  0  0  0  0  0  0
   -2.4503   -2.3274    0.1912 O   0  0  0  0  0  0  0  0  0  0  0  0
   -3.0815   -0.2383    1.3463 O   0  0  0  0  0  0  0  0  0  0  0  0
   -2.7865   -0.2683   -1.0774 N   0  0  0  0  0  0  0  0  0  0  0  0
   -3.3017    1.0032   -1.2738 C   0  0  0  0  0  0  0  0  0  0  0  0
   -3.5767    2.0663   -0.4319 C   0  0  0  0  0  0  0  0  0  0  0  0
   -4.1071    3.2432   -0.9596 C   0  0  0  0  0  0  0  0  0  0  0  0
   -4.3589    3.3458   -2.3336 C   0  0  0  0  0  0  0  0  0  0  0  0
   -4.0895    2.3002   -3.1662 C   0  0  0  0  0  0  0  0  0  0  0  0
   -3.5569    1.1132   -2.6521 C   0  0  0  0  0  0  0  0  0  0  0  0
   -3.1949   -0.0666   -3.2201 N   0  0  0  0  0  0  0  0  0  0  0  0
   -2.7368   -0.8773   -2.2988 C   0  0  0  0  0  0  0  0  0  0  0  0
   -2.2766   -2.1568   -2.5275 N   0  0  0  0  0  0  0  0  0  0  0  0
   -4.4041    4.3821   -0.0688 C   0  0  0  0  0  0  0  0  0  0  0  0
   -5.5680    5.1283   -0.0350 C   0  0  0  0  0  0  0  0  0  0  0  0
   -5.4207    6.0650    0.9209 N   0  0  0  0  0  0  0  0  0  0  0  0
   -4.2468    5.9436    1.4746 C   0  0  0  0  0  0  0  0  0  0  0  0
   -3.5807    4.9106    0.8988 N   0  0  0  0  0  0  0  0  0  0  0  0
   -2.6892    4.6033    1.1259 H   0  0  0  0  0  0  0  0  0  0  0  0
   -6.7590    4.9331   -0.8940 C   0  0  0  0  0  0  0  0  0  0  0  0
   -7.2296    3.6464   -1.1556 C   0  0  0  0  0  0  0  0  0  0  0  0
   -8.3391    3.4699   -1.9562 C   0  0  0  0  0  0  0  0  0  0  0  0
   -8.9857    4.5680   -2.5001 C   0  0  0  0  0  0  0  0  0  0  0  0
   -8.5221    5.8482   -2.2431 C   0  0  0  0  0  0  0  0  0  0  0  0
   -7.4168    6.0356   -1.4391 C   0  0  0  0  0  0  0  0  0  0  0  0
  -10.0716    4.3899   -3.2838 F   0  0  0  0  0  0  0  0  0  0  0  0
    0.6375    1.3048    0.6188 H   0  0  0  0  0  0  0  0  0  0  0  0
   -0.8065    1.4391   -0.4131 H   0  0  0  0  0  0  0  0  0  0  0  0
   -0.9738    1.4607    1.3588 H   0  0  0  0  0  0  0  0  0  0  0  0
   -0.0022   -0.9041   -0.3086 H   0  0  0  0  0  0  0  0  0  0  0  0
   -0.5700   -0.6228    2.6773 H   0  0  0  0  0  0  0  0  0  0  0  0
   -0.1150   -2.1287    1.8446 H   0  0  0  0  0  0  0  0  0  0  0  0
    1.0414   -0.7787    1.9373 H   0  0  0  0  0  0  0  0  0  0  0  0
   -3.3822    1.9851    0.6273 H   0  0  0  0  0  0  0  0  0  0  0  0
   -4.7697    4.2598   -2.7365 H   0  0  0  0  0  0  0  0  0  0  0  0
   -4.2877    2.3885   -4.2242 H   0  0  0  0  0  0  0  0  0  0  0  0
   -1.9554   -2.6962   -1.7880 H   0  0  0  0  0  0  0  0  0  0  0  0
   -2.2741   -2.5176   -3.4279 H   0  0  0  0  0  0  0  0  0  0  0  0
   -3.8652    6.5656    2.2707 H   0  0  0  0  0  0  0  0  0  0  0  0
   -6.7261    2.7898   -0.7325 H   0  0  0  0  0  0  0  0  0  0  0  0
   -8.7041    2.4740   -2.1597 H   0  0  0  0  0  0  0  0  0  0  0  0
   -9.0295    6.7010   -2.6693 H   0  0  0  0  0  0  0  0  0  0  0  0
   -7.0591    7.0341   -1.2354 H   0  0  0  0  0  0  0  0  0  0  0  0
  1  2  1  0  0  0  0
  1 30  1  0  0  0  0
  1 31  1  0  0  0  0
  1 32  1  0  0  0  0
  2  3  1  0  0  0  0
  2  4  1  0  0  0  0
  2 33  1  0  0  0  0
  3 34  1  0  0  0  0
  3 35  1  0  0  0  0
  3 36  1  0  0  0  0
  4  5  2  0  0  0  0
  4  6  2  0  0  0  0
  4  7  1  0  0  0  0
  7 15  1  0  0  0  0
  7  8  1  0  0  0  0
  8 13  2  0  0  0  0
  8  9  1  0  0  0  0
  9 10  2  0  0  0  0
  9 37  1  0  0  0  0
 10 11  1  0  0  0  0
 10 17  1  0  0  0  0
 11 12  2  0  0  0  0
 11 38  1  0  0  0  0
 12 13  1  0  0  0  0
 12 39  1  0  0  0  0
 13 14  1  0  0  0  0
 14 15  2  0  0  0  0
 15 16  1  0  0  0  0
 16 40  1  0  0  0  0
 16 41  1  0  0  0  0
 17 21  1  0  0  0  0
 17 18  2  0  0  0  0
 18 19  1  0  0  0  0
 18 23  1  0  0  0  0
 19 20  2  0  0  0  0
 20 21  1  0  0  0  0
 20 42  1  0  0  0  0
 21 22  1  0  0  0  0
 23 28  2  0  0  0  0
 23 24  1  0  0  0  0
 24 25  2  0  0  0  0
 24 43  1  0  0  0  0
 25 26  1  0  0  0  0
 25 44  1  0  0  0  0
 26 27  2  0  0  0  0
 26 29  1  0  0  0  0
 27 28  1  0  0  0  0
 27 45  1  0  0  0  0
 28 46  1  0  0  0  0
M  END
$$$$
CHEMBL192850
  -OEChem-07121202273D

 46 49  0     0  0  0  0  0  0999 V2000
   -0.0187    1.5258    0.0104 C   0  0  0  0  0  0  0  0  0  0  0  0
    0.0021   -0.0041    0.0020 C   0  0  0  0  0  0  0  0  0  0  0  0
   -1.4333   -0.5336    0.0129 C   0  0  0  0  0  0  0  0  0  0  0  0
    0.8511   -0.5891   -1.4904 S   0  0  0  0  0  0  0  0  0  0  0  0
    1.0369   -1.9965   -1.4280 O   0  0  0  0  0  0  0  0  0  0  0  0
    0.2851    0.0164   -2.6447 O   0  0  0  0  0  0  0  0  0  0  0  0
    2.3780    0.0437   -1.3871 N   0  0  0  0  0  0  0  0  0  0  0  0
    2.7950    1.2696   -1.8806 C   0  0  0  0  0  0  0  0  0  0  0  0
    2.1616    2.2949   -2.5619 C   0  0  0  0  0  0  0  0  0  0  0  0
    2.8842    3.4281   -2.9259 C   0  0  0  0  0  0  0  0  0  0  0  0
    4.2420    3.5284   -2.6049 C   0  0  0  0  0  0  0  0  0  0  0  0
    4.8711    2.5209   -1.9341 C   0  0  0  0  0  0  0  0  0  0  0  0
    4.1595    1.3764   -1.5604 C   0  0  0  0  0  0  0  0  0  0  0  0
    4.5051    0.2390   -0.9022 N   0  0  0  0  0  0  0  0  0  0  0  0
    3.4597   -0.5427   -0.7944 C   0  0  0  0  0  0  0  0  0  0  0  0
    3.4531   -1.7760   -0.1775 N   0  0  0  0  0  0  0  0  0  0  0  0
    2.2139    4.5294   -3.6550 C   0  0  0  0  0  0  0  0  0  0  0  0
    2.4804    5.8798   -3.5217 C   0  0  0  0  0  0  0  0  0  0  0  0
    1.6262    6.5271   -4.3853 N   0  0  0  0  0  0  0  0  0  0  0  0
    0.8825    5.5763   -5.0044 C   0  0  0  0  0  0  0  0  0  0  0  0
    1.2378    4.3984   -4.5729 N   0  0  0  0  0  0  0  0  0  0  0  0
    1.5667    7.4851   -4.5251 H   0  0  0  0  0  0  0  0  0  0  0  0
    3.4803    6.5023   -2.6312 C   0  0  0  0  0  0  0  0  0  0  0  0
    3.6018    6.0757   -1.3069 C   0  0  0  0  0  0  0  0  0  0  0  0
    4.5378    6.6605   -0.4801 C   0  0  0  0  0  0  0  0  0  0  0  0
    5.3566    7.6700   -0.9608 C   0  0  0  0  0  0  0  0  0  0  0  0
    5.2403    8.0978   -2.2738 C   0  0  0  0  0  0  0  0  0  0  0  0
    4.3122    7.5161   -3.1117 C   0  0  0  0  0  0  0  0  0  0  0  0
    6.2715    8.2396   -0.1461 F   0  0  0  0  0  0  0  0  0  0  0  0
    1.0039    1.9031    0.0027 H   0  0  0  0  0  0  0  0  0  0  0  0
   -0.5459    1.8868   -0.8726 H   0  0  0  0  0  0  0  0  0  0  0  0
   -0.5289    1.8773    0.9072 H   0  0  0  0  0  0  0  0  0  0  0  0
    0.5293   -0.3651    0.8851 H   0  0  0  0  0  0  0  0  0  0  0  0
   -1.9605   -0.1726   -0.8702 H   0  0  0  0  0  0  0  0  0  0  0  0
   -1.4185   -1.6235    0.0069 H   0  0  0  0  0  0  0  0  0  0  0  0
   -1.9435   -0.1821    0.9097 H   0  0  0  0  0  0  0  0  0  0  0  0
    1.1134    2.2161   -2.8098 H   0  0  0  0  0  0  0  0  0  0  0  0
    4.7966    4.4100   -2.8906 H   0  0  0  0  0  0  0  0  0  0  0  0
    5.9199    2.6071   -1.6913 H   0  0  0  0  0  0  0  0  0  0  0  0
    2.6351   -2.2962   -0.1422 H   0  0  0  0  0  0  0  0  0  0  0  0
    4.2663   -2.1232    0.2212 H   0  0  0  0  0  0  0  0  0  0  0  0
    0.1178    5.7654   -5.7432 H   0  0  0  0  0  0  0  0  0  0  0  0
    2.9638    5.2896   -0.9310 H   0  0  0  0  0  0  0  0  0  0  0  0
    4.6326    6.3314    0.5442 H   0  0  0  0  0  0  0  0  0  0  0  0
    5.8806    8.8854   -2.6428 H   0  0  0  0  0  0  0  0  0  0  0  0
    4.2255    7.8472   -4.1361 H   0  0  0  0  0  0  0  0  0  0  0  0
  1  2  1  0  0  0  0
  1 30  1  0  0  0  0
  1 31  1  0  0  0  0
  1 32  1  0  0  0  0
  2  3  1  0  0  0  0
  2  4  1  0  0  0  0
  2 33  1  0  0  0  0
  3 34  1  0  0  0  0
  3 35  1  0  0  0  0
  3 36  1  0  0  0  0
  4  5  2  0  0  0  0
  4  6  2  0  0  0  0
  4  7  1  0  0  0  0
  7 15  1  0  0  0  0
  7  8  1  0  0  0  0
  8 13  2  0  0  0  0
  8  9  1  0  0  0  0
  9 10  2  0  0  0  0
  9 37  1  0  0  0  0
 10 11  1  0  0  0  0
 10 17  1  0  0  0  0
 11 12  2  0  0  0  0
 11 38  1  0  0  0  0
 12 13  1  0  0  0  0
 12 39  1  0  0  0  0
 13 14  1  0  0  0  0
 14 15  2  0  0  0  0
 15 16  1  0  0  0  0
 16 40  1  0  0  0  0
 16 41  1  0  0  0  0
 17 21  1  0  0  0  0
 17 18  2  0  0  0  0
 18 23  1  0  0  0  0
 18 19  1  0  0  0  0
 19 20  1  0  0  0  0
 19 22  1  0  0  0  0
 20 42  1  0  0  0  0
 20 21  2  0  0  0  0
 23 28  2  0  0  0  0
 23 24  1  0  0  0  0
 24 25  2  0  0  0  0
 24 43  1  0  0  0  0
 25 26  1  0  0  0  0
 25 44  1  0  0  0  0
 26 27  2  0  0  0  0
 26 29  1  0  0  0  0
 27 28  1  0  0  0  0
 27 45  1  0  0  0  0
 28 46  1  0  0  0  0
M  END
$$$$
CHEMBL501315
  -OEChem-07121202273D

 91 95  0     1  0  0  0  0  0999 V2000
    8.8189   -8.4303   -2.0516 C   0  0  0  0  0  0  0  0  0  0  0  0
    7.3626   -8.4493   -1.5829 C   0  0  2  0  0  0  0  0  0  0  0  0
    7.1671   -9.3749   -1.0416 H   0  0  0  0  0  0  0  0  0  0  0  0
    6.4350   -8.3627   -2.7969 C   0  0  0  0  0  0  0  0  0  0  0  0
    5.0372   -8.3617   -2.3426 N   0  0  0  0  0  0  0  0  0  0  0  0
    4.7841   -7.2338   -1.4349 C   0  0  0  0  0  0  0  0  0  0  0  0
    5.7254   -7.3297   -0.2322 C   0  0  1  0  0  0  0  0  0  0  0  0
    5.5383   -8.2611    0.3022 H   0  0  0  0  0  0  0  0  0  0  0  0
    7.1184   -7.3032   -0.6972 N   0  3  0  0  0  0  0  0  0  0  0  0
    5.4779   -6.1456    0.7047 C   0  0  0  0  0  0  0  0  0  0  0  0
    4.1127   -8.3366   -3.4840 C   0  0  0  0  0  0  0  0  0  0  0  0
    2.7328   -8.7277   -3.0215 C   0  0  0  0  0  0  0  0  0  0  0  0
    2.3930  -10.0648   -2.9210 C   0  0  0  0  0  0  0  0  0  0  0  0
    1.1306  -10.4287   -2.4980 C   0  0  0  0  0  0  0  0  0  0  0  0
    0.1979   -9.4463   -2.1718 C   0  0  0  0  0  0  0  0  0  0  0  0
    0.5456   -8.1010   -2.2749 C   0  0  0  0  0  0  0  0  0  0  0  0
    1.8126   -7.7484   -2.6936 C   0  0  0  0  0  0  0  0  0  0  0  0
   -1.1611   -9.8315   -1.7169 C   0  0  0  0  0  0  0  0  0  0  0  0
   -1.9606  -10.6475   -2.5149 C   0  0  0  0  0  0  0  0  0  0  0  0
   -3.2233  -11.0030   -2.0867 C   0  0  0  0  0  0  0  0  0  0  0  0
   -3.6959  -10.5508   -0.8677 C   0  0  0  0  0  0  0  0  0  0  0  0
   -2.9069   -9.7404   -0.0719 C   0  0  0  0  0  0  0  0  0  0  0  0
   -1.6400   -9.3833   -0.4878 C   0  0  0  0  0  0  0  0  0  0  0  0
   -0.7790   -8.5053    0.3833 C   0  0  0  0  0  0  0  0  0  0  0  0
   -1.5322   -8.1127    1.5769 N   0  0  0  0  0  0  0  0  0  0  0  0
   -1.4001   -8.8867    2.8138 C   0  0  0  0  0  0  0  0  0  0  0  0
   -0.2604   -8.3108    3.6565 C   0  0  0  0  0  0  0  0  0  0  0  0
   -0.1246   -9.1069    4.9288 C   0  0  0  0  0  0  0  0  0  0  0  0
   -0.8401   -8.7392    6.0536 C   0  0  0  0  0  0  0  0  0  0  0  0
   -0.7178   -9.4675    7.2223 C   0  0  0  0  0  0  0  0  0  0  0  0
    0.1206  -10.5647    7.2693 C   0  0  0  0  0  0  0  0  0  0  0  0
    0.8394  -10.9356    6.1425 C   0  0  0  0  0  0  0  0  0  0  0  0
    0.7102  -10.2067    4.9689 C   0  0  0  0  0  0  0  0  0  0  0  0
    1.6646  -12.0145    6.1862 O   0  0  0  0  0  0  0  0  0  0  0  0
    1.7436  -12.7211    7.4257 C   0  0  0  0  0  0  0  0  0  0  0  0
   -2.3465   -7.0395    1.5372 C   0  0  0  0  0  0  0  0  0  0  0  0
   -2.9042   -6.6618    2.5494 O   0  0  0  0  0  0  0  0  0  0  0  0
   -2.5427   -6.3851    0.3754 N   0  0  0  0  0  0  0  0  0  0  0  0
   -3.3404   -5.1566    0.3524 C   0  0  0  0  0  0  0  0  0  0  0  0
   -4.8277   -5.5147    0.3247 C   0  0  0  0  0  0  0  0  0  0  0  0
   -5.6608   -4.2316    0.3007 C   0  0  0  0  0  0  0  0  0  0  0  0
   -5.3088   -3.4183   -0.9465 C   0  0  0  0  0  0  0  0  0  0  0  0
   -3.8216   -3.0602   -0.9188 C   0  0  0  0  0  0  0  0  0  0  0  0
   -2.9884   -4.3432   -0.8948 C   0  0  0  0  0  0  0  0  0  0  0  0
    9.4797   -8.4921   -1.1869 H   0  0  0  0  0  0  0  0  0  0  0  0
    9.0002   -9.2808   -2.7088 H   0  0  0  0  0  0  0  0  0  0  0  0
    9.0144   -7.5047   -2.5929 H   0  0  0  0  0  0  0  0  0  0  0  0
    6.6395   -7.4436   -3.3461 H   0  0  0  0  0  0  0  0  0  0  0  0
    6.6055   -9.2209   -3.4469 H   0  0  0  0  0  0  0  0  0  0  0  0
    4.9615   -6.2961   -1.9617 H   0  0  0  0  0  0  0  0  0  0  0  0
    3.7503   -7.2683   -1.0913 H   0  0  0  0  0  0  0  0  0  0  0  0
    7.7388   -7.3540    0.0969 H   0  0  0  0  0  0  0  0  0  0  0  0
    4.4442   -6.1653    1.0498 H   0  0  0  0  0  0  0  0  0  0  0  0
    6.1484   -6.2139    1.5614 H   0  0  0  0  0  0  0  0  0  0  0  0
    5.6649   -5.2142    0.1703 H   0  0  0  0  0  0  0  0  0  0  0  0
    4.0834   -7.3319   -3.9057 H   0  0  0  0  0  0  0  0  0  0  0  0
    4.4542   -9.0397   -4.2437 H   0  0  0  0  0  0  0  0  0  0  0  0
    3.1167  -10.8254   -3.1744 H   0  0  0  0  0  0  0  0  0  0  0  0
    0.8662  -11.4729   -2.4203 H   0  0  0  0  0  0  0  0  0  0  0  0
   -0.1737   -7.3355   -2.0237 H   0  0  0  0  0  0  0  0  0  0  0  0
    2.0848   -6.7060   -2.7693 H   0  0  0  0  0  0  0  0  0  0  0  0
   -1.5927  -11.0008   -3.4669 H   0  0  0  0  0  0  0  0  0  0  0  0
   -3.8439  -11.6351   -2.7046 H   0  0  0  0  0  0  0  0  0  0  0  0
   -4.6848  -10.8315   -0.5364 H   0  0  0  0  0  0  0  0  0  0  0  0
   -3.2811   -9.3896    0.8786 H   0  0  0  0  0  0  0  0  0  0  0  0
    0.1145   -9.0538    0.6815 H   0  0  0  0  0  0  0  0  0  0  0  0
   -0.4893   -7.6138   -0.1731 H   0  0  0  0  0  0  0  0  0  0  0  0
   -2.3317   -8.8329    3.3772 H   0  0  0  0  0  0  0  0  0  0  0  0
   -1.1824   -9.9265    2.5702 H   0  0  0  0  0  0  0  0  0  0  0  0
    0.6711   -8.3646    3.0931 H   0  0  0  0  0  0  0  0  0  0  0  0
   -0.4781   -7.2709    3.9001 H   0  0  0  0  0  0  0  0  0  0  0  0
   -1.4954   -7.8814    6.0191 H   0  0  0  0  0  0  0  0  0  0  0  0
   -1.2777   -9.1783    8.0994 H   0  0  0  0  0  0  0  0  0  0  0  0
    0.2164  -11.1329    8.1827 H   0  0  0  0  0  0  0  0  0  0  0  0
    1.2651  -10.4963    4.0889 H   0  0  0  0  0  0  0  0  0  0  0  0
    2.0999  -12.0481    8.2055 H   0  0  0  0  0  0  0  0  0  0  0  0
    0.7559  -13.0967    7.6934 H   0  0  0  0  0  0  0  0  0  0  0  0
    2.4350  -13.5575    7.3238 H   0  0  0  0  0  0  0  0  0  0  0  0
   -2.1556   -6.7275   -0.4455 H   0  0  0  0  0  0  0  0  0  0  0  0
   -3.1252   -4.5668    1.2435 H   0  0  0  0  0  0  0  0  0  0  0  0
   -5.0429   -6.1044   -0.5663 H   0  0  0  0  0  0  0  0  0  0  0  0
   -5.0784   -6.0941    1.2132 H   0  0  0  0  0  0  0  0  0  0  0  0
   -6.7204   -4.4868    0.2810 H   0  0  0  0  0  0  0  0  0  0  0  0
   -5.4456   -3.6419    1.1917 H   0  0  0  0  0  0  0  0  0  0  0  0
   -5.5240   -4.0080   -1.8376 H   0  0  0  0  0  0  0  0  0  0  0  0
   -5.9024   -2.5042   -0.9636 H   0  0  0  0  0  0  0  0  0  0  0  0
   -3.5708   -2.4807   -1.8073 H   0  0  0  0  0  0  0  0  0  0  0  0
   -3.6064   -2.4704   -0.0278 H   0  0  0  0  0  0  0  0  0  0  0  0
   -1.9289   -4.0881   -0.8751 H   0  0  0  0  0  0  0  0  0  0  0  0
   -3.2036   -4.9329   -1.7859 H   0  0  0  0  0  0  0  0  0  0  0  0
    7.2881   -6.4462   -1.2019 H   0  0  0  0  0  0  0  0  0  0  0  0
  1  2  1  0  0  0  0
  1 45  1  0  0  0  0
  1 46  1  0  0  0  0
  1 47  1  0  0  0  0
  2  3  1  0  0  0  0
  2  9  1  0  0  0  0
  2  4  1  0  0  0  0
  4  5  1  0  0  0  0
  4 48  1  0  0  0  0
  4 49  1  0  0  0  0
  5  6  1  0  0  0  0
  5 11  1  0  0  0  0
  6  7  1  0  0  0  0
  6 50  1  0  0  0  0
  6 51  1  0  0  0  0
  7  8  1  0  0  0  0
  7  9  1  0  0  0  0
  7 10  1  0  0  0  0
  9 52  1  0  0  0  0
  9 91  1  0  0  0  0
 10 53  1  0  0  0  0
 10 54  1  0  0  0  0
 10 55  1  0  0  0  0
 11 12  1  0  0  0  0
 11 56  1  0  0  0  0
 11 57  1  0  0  0  0
 12 17  2  0  0  0  0
 12 13  1  0  0  0  0
 13 14  2  0  0  0  0
 13 58  1  0  0  0  0
 14 15  1  0  0  0  0
 14 59  1  0  0  0  0
 15 16  2  0  0  0  0
 15 18  1  0  0  0  0
 16 17  1  0  0  0  0
 16 60  1  0  0  0  0
 17 61  1  0  0  0  0
 18 23  2  0  0  0  0
 18 19  1  0  0  0  0
 19 20  2  0  0  0  0
 19 62  1  0  0  0  0
 20 21  1  0  0  0  0
 20 63  1  0  0  0  0
 21 22  2  0  0  0  0
 21 64  1  0  0  0  0
 22 23  1  0  0  0  0
 22 65  1  0  0  0  0
 23 24  1  0  0  0  0
 24 25  1  0  0  0  0
 24 66  1  0  0  0  0
 24 67  1  0  0  0  0
 25 26  1  0  0  0  0
 25 36  1  0  0  0  0
 26 27  1  0  0  0  0
 26 68  1  0  0  0  0
 26 69  1  0  0  0  0
 27 28  1  0  0  0  0
 27 70  1  0  0  0  0
 27 71  1  0  0  0  0
 28 33  2  0  0  0  0
 28 29  1  0  0  0  0
 29 30  2  0  0  0  0
 29 72  1  0  0  0  0
 30 31  1  0  0  0  0
 30 73  1  0  0  0  0
 31 32  2  0  0  0  0
 31 74  1  0  0  0  0
 32 33  1  0  0  0  0
 32 34  1  0  0  0  0
 33 75  1  0  0  0  0
 34 35  1  0  0  0  0
 35 76  1  0  0  0  0
 35 77  1  0  0  0  0
 35 78  1  0  0  0  0
 36 37  2  0  0  0  0
 36 38  1  0  0  0  0
 38 39  1  0  0  0  0
 38 79  1  0  0  0  0
 39 44  1  0  0  0  0
 39 40  1  0  0  0  0
 39 80  1  0  0  0  0
 40 41  1  0  0  0  0
 40 81  1  0  0  0  0
 40 82  1  0  0  0  0
 41 42  1  0  0  0  0
 41 83  1  0  0  0  0
 41 84  1  0  0  0  0
 42 43  1  0  0  0  0
 42 85  1  0  0  0  0
 42 86  1  0  0  0  0
 43 44  1  0  0  0  0
 43 87  1  0  0  0  0
 43 88  1  0  0  0  0
 44 89  1  0  0  0  0
 44 90  1  0  0  0  0
M  CHG  1   9   1
M  END
$$$$
